/*--------------------------------*- C++ -*----------------------------------*\
  =========                 |
  \\      /  F ield         | OpenFOAM: The Open Source CFD Toolbox
   \\    /   O peration     | Website:  https://openfoam.org
    \\  /    A nd           | Version:  9
     \\/     M anipulation  |
\*---------------------------------------------------------------------------*/
FoamFile
{
    format      ascii;
    class       polyBoundaryMesh;
    location    "constant/polyMesh";
    object      boundary;
}
// * * * * * * * * * * * * * * * * * * * * * * * * * * * * * * * * * * * * * //

12
(
    bottomWall
    {
        type            wall;
        inGroups        List<word> 1(wall);
        nFaces          2400;
        startFace       844800;
    }
    leftWall
    {
        type            wall;
        inGroups        List<word> 1(wall);
        nFaces          2400;
        startFace       847200;
    }
    rightWall
    {
        type            wall;
        inGroups        List<word> 1(wall);
        nFaces          2400;
        startFace       849600;
    }
    topWall
    {
        type            wall;
        inGroups        List<word> 1(wall);
        nFaces          2400;
        startFace       852000;
    }
    inout1_half0
    {
        type            cyclic;
        inGroups        List<word> 1(cyclic);
        nFaces          3600;
        startFace       854400;
        matchTolerance  0.0001;
        neighbourPatch  inout1_half1;
        transformType   translational;
        separation      (0.2 0 0);
    }
    inout1_half1
    {
        type            cyclic;
        inGroups        List<word> 1(cyclic);
        nFaces          3600;
        startFace       858000;
        matchTolerance  0.0001;
        neighbourPatch  inout1_half0;
        transformType   translational;
        separation      (-0.2 0 0);
    }
    inout2_half0
    {
        type            cyclic;
        inGroups        List<word> 1(cyclic);
        nFaces          3600;
        startFace       861600;
        matchTolerance  0.0001;
        neighbourPatch  inout2_half1;
        transformType   translational;
        separation      (0.2 0 0);
    }
    inout2_half1
    {
        type            cyclic;
        inGroups        List<word> 1(cyclic);
        nFaces          3600;
        startFace       865200;
        matchTolerance  0.0001;
        neighbourPatch  inout2_half0;
        transformType   translational;
        separation      (-0.2 0 0);
    }
    inout3_half0
    {
        type            cyclic;
        inGroups        List<word> 1(cyclic);
        nFaces          3600;
        startFace       868800;
        matchTolerance  0.0001;
        neighbourPatch  inout3_half1;
        transformType   translational;
        separation      (0.2 0 0);
    }
    inout3_half1
    {
        type            cyclic;
        inGroups        List<word> 1(cyclic);
        nFaces          3600;
        startFace       872400;
        matchTolerance  0.0001;
        neighbourPatch  inout3_half0;
        transformType   translational;
        separation      (-0.2 0 0);
    }
    inout4_half0
    {
        type            cyclic;
        inGroups        List<word> 1(cyclic);
        nFaces          3600;
        startFace       876000;
        matchTolerance  0.0001;
        neighbourPatch  inout4_half1;
        transformType   translational;
        separation      (0.2 0 0);
    }
    inout4_half1
    {
        type            cyclic;
        inGroups        List<word> 1(cyclic);
        nFaces          3600;
        startFace       879600;
        matchTolerance  0.0001;
        neighbourPatch  inout4_half0;
        transformType   translational;
        separation      (-0.2 0 0);
    }
)

// ************************************************************************* //
