/*--------------------------------*- C++ -*----------------------------------*\
  =========                 |
  \\      /  F ield         | OpenFOAM: The Open Source CFD Toolbox
   \\    /   O peration     | Website:  https://openfoam.org
    \\  /    A nd           | Version:  9
     \\/     M anipulation  |
\*---------------------------------------------------------------------------*/
FoamFile
{
    format      ascii;
    class       dictionary;
    location    "system";
    object      controlDict;
}
// * * * * * * * * * * * * * * * * * * * * * * * * * * * * * * * * * * * * * //

application     simplePIMLFoam;

startFrom       latestTime;

startTime       0;

stopAt          endTime;

endTime         2.4;

deltaT          0.001;

writeControl    timeStep;

writeInterval   50;

purgeWrite      0;

writeFormat     ascii;

writePrecision  6;

writeCompression off;

timeFormat      general;

timePrecision   6;

runTimeModifiable true;

//cacheTemporaryObjects
//(
//    kEpsilon:G
//);
functions
{
    // field function objects
    //#include "FOfieldAverage"
    //#include "FOadd"
    //#include "FOgrad"
}

// ************************************************************************* //
